
.control
pre_osdi $(MFDA_SPICE)/channel_flow.osdi
.endc

.model channel_flow_model channel_flow length=5m crosssection=1 nu=0.0010016
.subckt channel_flow_sp fl_in fl_out params: length=5m crosssection=1 nu=0.0010016
N1 fl_in fl_out channel_flow_model length=length crosssection=crosssection nu=nu
.ends