
.control
pre_osdi $(MFDA_SPICE)/channel.osdi
.endc

.model channel_model channel length=5m cross_section=1 nu=0.0010016 ccap=100u gcap=100n
.subckt channel_sp fl_in fl_out c_in c_out params: length=5m cross_section=1 nu=0.0010016 ccap=100u gcap=100n
N1 fl_in fl_out c_in c_out channel_model length=length cross_section=cross_section nu=nu ccap=ccap gcap=gcap
.ends