
.control
pre_osdi /home/u1146591/MFDA/h.r.3.3_devel/Components/verilogA_build_ng/channel.osdi
.endc

.model channel_model channel length=5m cross_section=1 nu=0.0010016 ccap=100u gcap=100n
.subckt channel_sp a b c d params: length=5m cross_section=1 nu=0.0010016 ccap=100u gcap=100n
N1 a b c d channel_model length=length cross_section=cross_section nu=nu ccap=ccap gcap=gcap
.ends