
.control
pre_osdi $MFDA_SPICE/diffmix_flow.osdi
.endc

.model diffmix_flow_model diffmix_flow NU=0.001006
.subckt diffmix_flow_sp fl_i1 fl_i2 fl_out params: NU=0.001006
N1 fl_i1 fl_i2 fl_out diffmix_flow_model NU=NU
.ends