
.control
pre_osdi $(MFDA_SPICE)/diffmix_25px_0.osdi
.endc

.model diffmix_25px_0_model diffmix_25px_0 CROSS_SECTION=1 NU=0.001006 g_ccap=100n
.subckt diffmix_25px_0_sp fl_i1 fl_i2 fl_out c_i1 c_i2 c_out params: CROSS_SECTION=1 NU=0.001006 g_ccap=100n
N1 fl_i1 fl_i2 fl_out c_i1 c_i2 c_out diffmix_25px_0_model CROSS_SECTION=CROSS_SECTION NU=NU g_ccap=g_ccap
.ends