
.control
pre_osdi $MFDA_SPICE/optical_measure_300_5ch.osdi
.endc

.model optical_measure_300_5ch_model optical_measure_300_5ch length=3m CROSS_SECTION=1 NU=0.0010005 ch0_NU=0.5 ccap=100u
.subckt optical_measure_300_5ch_sp fl_in fl_out c_in c_out params: length=3m CROSS_SECTION=1 NU=0.0010005 ch0_NU=0.5 ccap=100u
N1 fl_in fl_out c_in c_out optical_measure_300_5ch_model length=length CROSS_SECTION=CROSS_SECTION NU=NU ch0_NU=ch0_NU ccap=ccap
.ends