
.control
pre_osdi /home/u1146591/MFDA/h.r.3.3_devel/Components/verilogA_build_ng/optical_measure_100_5ch.osdi
.endc

.model optical_measure_100_5ch_model optical_measure_100_5ch length=1m CROSS_SECTION=1 NU=0.0010005 ch0_NU=0.5 ccap=100u
.subckt optical_measure_100_5ch_sp a b c d params: length=1m CROSS_SECTION=1 NU=0.0010005 ch0_NU=0.5 ccap=100u
N1 a b c d optical_measure_100_5ch_model length=length CROSS_SECTION=CROSS_SECTION NU=NU ch0_NU=ch0_NU ccap=ccap
.ends