
.control
pre_osdi $(MFDA_SPICE)/p_serpentine_3.osdi
.endc

.model p_serpentine_3_model p_serpentine_3 CROSS_SECTION=2 NU=0.0010005 lpv=20 L1=200 L2=50 turns=5 ccap=100u
.subckt p_serpentine_3_sp fl_in fl_out c_in c_out params: CROSS_SECTION=2 NU=0.0010005 lpv=20 L1=200 L2=50 turns=5 ccap=100u
N1 fl_in fl_out c_in c_out p_serpentine_3_model CROSS_SECTION=CROSS_SECTION NU=NU lpv=lpv L1=L1 L2=L2 turns=turns ccap=ccap
.ends