
.control
pre_osdi $MFDA_SPICE/pressure_source.osdi
.endc

.model pressure_source_model pressure_source pressure=34k
.subckt pressure_source_sp fl_plus fl_minus params: pressure=34k
N1 fl_plus fl_minus pressure_source_model pressure=pressure
.ends