
.control
pre_osdi $MFDA_SPICE/pressure_io.osdi
.endc

.model pressure_io_model pressure_io pressure_psi=0 pressure_pa=0
.subckt pressure_io_sp fl_out params: pressure_psi=0 pressure_pa=0
N1 fl_out pressure_io_model pressure_psi=pressure_psi pressure_pa=pressure_pa
.ends