
.control
pre_osdi $(MFDA_SPICE)/pressure_io_chem.osdi
.endc

.model pressure_io_chem_model pressure_io_chem pressure_psi=0 pressure_pa=0 chemConcentration=0
.subckt pressure_io_chem_sp fl_out c_out params: pressure_psi=0 pressure_pa=0 chemConcentration=0
N1 fl_out c_out pressure_io_chem_model pressure_psi=pressure_psi pressure_pa=pressure_pa chemConcentration=chemConcentration
.ends