
.control
pre_osdi $MFDA_SPICE/pressurePump.osdi
.endc

.model pressurePump_model pressurePump pressure=34k chemConcentration=0
.subckt pressurePump_sp fl_out c_out params: pressure=34k chemConcentration=0
N1 fl_out c_out pressurePump_model pressure=pressure chemConcentration=chemConcentration
.ends