
.control
pre_osdi /home/u1146591/MFDA/openmfda_flow_ki2/flow/platforms/h.r.3.3/pdk/Components/verilogA_build_ng/serpentine_200px_0_flow.osdi
.endc

.model serpentine_200px_0_flow_model serpentine_200px_0_flow length=16.416m cross_section=1 nu=0.0010005 ccap=100u gcap=100n
.subckt serpentine_200px_0_flow_sp a b params: length=16.416m cross_section=1 nu=0.0010005 ccap=100u gcap=100n
N1 a b serpentine_200px_0_flow_model length=length cross_section=cross_section nu=nu ccap=ccap gcap=gcap
.ends