
.control
pre_osdi $(MFDA_SPICE)/serpentine_75px_0.osdi
.endc

.model serpentine_75px_0_model serpentine_75px_0 length=2.736m cross_section=1 nu=0.0010005 ccap=100u gcap=100n
.subckt serpentine_75px_0_sp fl_in fl_out c_in c_out params: length=2.736m cross_section=1 nu=0.0010005 ccap=100u gcap=100n
N1 fl_in fl_out c_in c_out serpentine_75px_0_model length=length cross_section=cross_section nu=nu ccap=ccap gcap=gcap
.ends