
.control
pre_osdi $(MFDA_SPICE)/serpentine_300px_4.osdi
.endc

.model serpentine_300px_4_model serpentine_300px_4 length=177.88m cross_section=1 nu=0.0010005 ccap=100u gcap=100n
.subckt serpentine_300px_4_sp fl_in fl_out c_in c_out params: length=177.88m cross_section=1 nu=0.0010005 ccap=100u gcap=100n
N1 fl_in fl_out c_in c_out serpentine_300px_4_model length=length cross_section=cross_section nu=nu ccap=ccap gcap=gcap
.ends