
.control
pre_osdi /home/u1146591/MFDA/h.r.3.3_devel/Components/verilogA_build_ng/serpentine_150px_0.osdi
.endc

.model serpentine_150px_0_model serpentine_150px_0 length=9.576m cross_section=1 nu=0.0010005 ccap=100u gcap=100n
.subckt serpentine_150px_0_sp a b c d params: length=9.576m cross_section=1 nu=0.0010005 ccap=100u gcap=100n
N1 a b c d serpentine_150px_0_model length=length cross_section=cross_section nu=nu ccap=ccap gcap=gcap
.ends