
.control
pre_osdi $MFDA_SPICE/serpentine_150px_0_flow.osdi
.endc

.model serpentine_150px_0_flow_model serpentine_150px_0_flow length=9.576m cross_section=1 nu=0.0010005 ccap=100u gcap=100n
.subckt serpentine_150px_0_flow_sp fl_in fl_out params: length=9.576m cross_section=1 nu=0.0010005 ccap=100u gcap=100n
N1 fl_in fl_out serpentine_150px_0_flow_model length=length cross_section=cross_section nu=nu ccap=ccap gcap=gcap
.ends