
.control
pre_osdi $MFDA_SPICE/syringePump.osdi
.endc

.model syringePump_model syringePump fluidflow=34 chemConcentration=0
.subckt syringePump_sp fl_out c_out params: fluidflow=34 chemConcentration=0
N1 fl_out c_out syringePump_model fluidflow=fluidflow chemConcentration=chemConcentration
.ends