
.control
pre_osdi $(MFDA_SPICE)/valve_40px_1.osdi
.endc

.model valve_40px_1_model valve_40px_1 valve_diameter_px=200 L=0.1 CROSS_SECTION=1 nu=0.0010016 mem_th=2 ccap=100n gcap=100n
.subckt valve_40px_1_sp fl_in fl_out pn_in pn_out c_in c_out params: valve_diameter_px=200 L=0.1 CROSS_SECTION=1 nu=0.0010016 mem_th=2 ccap=100n gcap=100n
N1 fl_in fl_out pn_in pn_out c_in c_out valve_40px_1_model valve_diameter_px=valve_diameter_px L=L CROSS_SECTION=CROSS_SECTION nu=nu mem_th=mem_th ccap=ccap gcap=gcap
.ends